Version 4
SHEET 1 880 696
WIRE -112 80 -256 80
WIRE -96 128 -96 -32
WIRE 128 128 -96 128
WIRE 304 128 208 128
WIRE 320 128 304 128
WIRE 400 128 400 16
WIRE -112 160 -112 80
WIRE 128 160 -112 160
WIRE -256 176 -256 160
WIRE 80 176 -256 176
WIRE 80 192 80 176
WIRE 128 192 80 192
WIRE 400 192 400 128
WIRE 400 192 208 192
WIRE 128 224 64 224
WIRE 128 256 -48 256
WIRE 256 256 208 256
WIRE 304 256 304 128
WIRE 336 256 304 256
WIRE 368 256 336 256
WIRE 432 256 368 256
WIRE 128 288 48 288
WIRE 224 320 208 320
WIRE 48 368 48 288
WIRE 256 368 256 256
WIRE 336 384 336 256
WIRE 416 384 336 384
WIRE 48 464 48 448
WIRE 256 464 256 448
WIRE 256 464 48 464
WIRE 336 464 256 464
WIRE 416 464 416 384
WIRE 48 512 48 464
WIRE 224 672 224 320
WIRE 400 672 224 672
FLAG -128 256 0
FLAG -96 -112 0
FLAG 400 -128 0
FLAG 48 592 0
FLAG 432 336 0
FLAG 368 320 0
FLAG 400 592 0
FLAG 64 224 0
SYMBOL Imported\ Symbols\\LM1496N_labels 160 224 R0
SYMATTR InstName U1
SYMBOL res -32 240 R90
WINDOW 0 0 56 VBottom 2
WINDOW 3 32 56 VTop 2
SYMATTR InstName R1
SYMATTR Value 17k
SYMBOL voltage -96 -16 R180
WINDOW 0 24 96 Left 2
WINDOW 3 24 16 Left 2
WINDOW 123 0 0 Left 0
WINDOW 39 0 0 Left 0
SYMATTR InstName V1
SYMATTR Value SINE(0 .06 1000)
SYMBOL res -272 64 R0
SYMATTR InstName R2
SYMATTR Value 1k
SYMBOL voltage 400 -32 R180
WINDOW 0 24 96 Left 2
WINDOW 3 24 16 Left 2
WINDOW 123 0 0 Left 0
WINDOW 39 0 0 Left 0
SYMATTR InstName V2
SYMATTR Value SINE(0 .085 1000000)
SYMBOL cap 384 -48 R0
SYMATTR InstName C1
SYMATTR Value 1ľ
SYMBOL voltage 48 496 R0
SYMATTR InstName V3
SYMATTR Value 12
SYMBOL res 64 464 R180
WINDOW 0 36 76 Left 2
WINDOW 3 36 40 Left 2
SYMATTR InstName R3
SYMATTR Value 3.9k
SYMBOL res 240 352 R0
SYMATTR InstName R4
SYMATTR Value 3.9k
SYMBOL res 416 240 R0
SYMATTR InstName R6
SYMATTR Value 1k
SYMBOL cap 352 256 R0
SYMATTR InstName C2
SYMATTR Value 1ľ
SYMBOL res 432 448 R90
WINDOW 0 0 56 VBottom 2
WINDOW 3 32 56 VTop 2
SYMATTR InstName R7
SYMATTR Value 1k
SYMBOL voltage 400 576 R0
WINDOW 123 0 0 Left 0
WINDOW 39 0 0 Left 0
SYMATTR InstName V4
SYMATTR Value 8
SYMBOL res 416 112 R90
WINDOW 0 0 56 VBottom 2
WINDOW 3 32 56 VTop 2
SYMATTR InstName R5
SYMATTR Value 51
TEXT -184 -160 Left 2 ;Modulating Signal
TEXT 328 -192 Left 2 ;Carrier Signal
TEXT -8 656 Left 2 ;Vsource/Vbias
TEXT -296 680 Left 2 !.tran 0 .003 .001
